<routes>
    <vType id="standard_car" accel="0.8" decel="4.5" sigma="0.5" length="5" minGap="2.5" maxSpeed="16.67" guiShape="passenger"/>
    <route id="NS" edges="n_to_c c_to_s"/>
    <route id="SN" edges="s_to_c c_to_n"/>
    <route id="EW" edges="e_to_c c_to_w"/>
    <route id="WE" edges="w_to_c c_to_e"/>
    <vehicle id="veh0" type="standard_car" route="WE" depart="0" />
    <vehicle id="veh1" type="standard_car" route="SN" depart="4" />
    <vehicle id="veh2" type="standard_car" route="SN" depart="5" />
    <vehicle id="veh3" type="standard_car" route="NS" depart="22" />
    <vehicle id="veh4" type="standard_car" route="WE" depart="22" />
    <vehicle id="veh5" type="standard_car" route="EW" depart="23" />
    <vehicle id="veh6" type="standard_car" route="EW" depart="30" />
    <vehicle id="veh7" type="standard_car" route="NS" depart="31" />
    <vehicle id="veh8" type="standard_car" route="EW" depart="44" />
    <vehicle id="veh9" type="standard_car" route="NS" depart="46" />
    <vehicle id="veh10" type="standard_car" route="NS" depart="50" />
    <vehicle id="veh11" type="standard_car" route="NS" depart="51" />
    <vehicle id="veh12" type="standard_car" route="EW" depart="56" />
    <vehicle id="veh13" type="standard_car" route="WE" depart="57" />
    <vehicle id="veh14" type="standard_car" route="EW" depart="61" />
    <vehicle id="veh15" type="standard_car" route="EW" depart="64" />
    <vehicle id="veh16" type="standard_car" route="WE" depart="65" />
    <vehicle id="veh17" type="standard_car" route="EW" depart="71" />
    <vehicle id="veh18" type="standard_car" route="NS" depart="76" />
    <vehicle id="veh19" type="standard_car" route="EW" depart="82" />
    <vehicle id="veh20" type="standard_car" route="EW" depart="87" />
    <vehicle id="veh21" type="standard_car" route="NS" depart="94" />
    <vehicle id="veh22" type="standard_car" route="NS" depart="94" />
    <vehicle id="veh23" type="standard_car" route="SN" depart="95" />
    <vehicle id="veh24" type="standard_car" route="NS" depart="97" />
    <vehicle id="veh25" type="standard_car" route="EW" depart="98" />
    <vehicle id="veh26" type="standard_car" route="SN" depart="98" />
    <vehicle id="veh27" type="standard_car" route="EW" depart="102" />
    <vehicle id="veh28" type="standard_car" route="EW" depart="102" />
    <vehicle id="veh29" type="standard_car" route="WE" depart="102" />
    <vehicle id="veh30" type="standard_car" route="WE" depart="103" />
    <vehicle id="veh31" type="standard_car" route="EW" depart="104" />
    <vehicle id="veh32" type="standard_car" route="WE" depart="104" />
    <vehicle id="veh33" type="standard_car" route="SN" depart="106" />
    <vehicle id="veh34" type="standard_car" route="NS" depart="107" />
    <vehicle id="veh35" type="standard_car" route="SN" depart="111" />
    <vehicle id="veh36" type="standard_car" route="NS" depart="112" />
    <vehicle id="veh37" type="standard_car" route="SN" depart="114" />
    <vehicle id="veh38" type="standard_car" route="NS" depart="118" />
    <vehicle id="veh39" type="standard_car" route="WE" depart="118" />
    <vehicle id="veh40" type="standard_car" route="SN" depart="125" />
    <vehicle id="veh41" type="standard_car" route="SN" depart="129" />
    <vehicle id="veh42" type="standard_car" route="WE" depart="130" />
    <vehicle id="veh43" type="standard_car" route="EW" depart="137" />
    <vehicle id="veh44" type="standard_car" route="NS" depart="138" />
    <vehicle id="veh45" type="standard_car" route="NS" depart="138" />
    <vehicle id="veh46" type="standard_car" route="WE" depart="139" />
    <vehicle id="veh47" type="standard_car" route="WE" depart="145" />
    <vehicle id="veh48" type="standard_car" route="EW" depart="146" />
    <vehicle id="veh49" type="standard_car" route="SN" depart="146" />
    <vehicle id="veh50" type="standard_car" route="EW" depart="158" />
    <vehicle id="veh51" type="standard_car" route="NS" depart="172" />
    <vehicle id="veh52" type="standard_car" route="NS" depart="172" />
    <vehicle id="veh53" type="standard_car" route="EW" depart="177" />
    <vehicle id="veh54" type="standard_car" route="WE" depart="182" />
    <vehicle id="veh55" type="standard_car" route="NS" depart="197" />
    <vehicle id="veh56" type="standard_car" route="NS" depart="199" />
    <vehicle id="veh57" type="standard_car" route="WE" depart="201" />
    <vehicle id="veh58" type="standard_car" route="WE" depart="201" />
    <vehicle id="veh59" type="standard_car" route="WE" depart="203" />
    <vehicle id="veh60" type="standard_car" route="NS" depart="205" />
    <vehicle id="veh61" type="standard_car" route="WE" depart="209" />
    <vehicle id="veh62" type="standard_car" route="WE" depart="210" />
    <vehicle id="veh63" type="standard_car" route="NS" depart="215" />
    <vehicle id="veh64" type="standard_car" route="SN" depart="216" />
    <vehicle id="veh65" type="standard_car" route="WE" depart="219" />
    <vehicle id="veh66" type="standard_car" route="EW" depart="223" />
    <vehicle id="veh67" type="standard_car" route="NS" depart="223" />
    <vehicle id="veh68" type="standard_car" route="WE" depart="228" />
    <vehicle id="veh69" type="standard_car" route="WE" depart="233" />
    <vehicle id="veh70" type="standard_car" route="SN" depart="235" />
    <vehicle id="veh71" type="standard_car" route="EW" depart="237" />
    <vehicle id="veh72" type="standard_car" route="NS" depart="240" />
    <vehicle id="veh73" type="standard_car" route="SN" depart="243" />
    <vehicle id="veh74" type="standard_car" route="SN" depart="255" />
    <vehicle id="veh75" type="standard_car" route="WE" depart="255" />
    <vehicle id="veh76" type="standard_car" route="WE" depart="255" />
    <vehicle id="veh77" type="standard_car" route="WE" depart="262" />
    <vehicle id="veh78" type="standard_car" route="NS" depart="263" />
    <vehicle id="veh79" type="standard_car" route="EW" depart="265" />
    <vehicle id="veh80" type="standard_car" route="SN" depart="267" />
    <vehicle id="veh81" type="standard_car" route="EW" depart="273" />
    <vehicle id="veh82" type="standard_car" route="SN" depart="273" />
    <vehicle id="veh83" type="standard_car" route="WE" depart="277" />
    <vehicle id="veh84" type="standard_car" route="SN" depart="281" />
    <vehicle id="veh85" type="standard_car" route="WE" depart="281" />
    <vehicle id="veh86" type="standard_car" route="SN" depart="282" />
    <vehicle id="veh87" type="standard_car" route="EW" depart="284" />
    <vehicle id="veh88" type="standard_car" route="SN" depart="285" />
    <vehicle id="veh89" type="standard_car" route="EW" depart="286" />
    <vehicle id="veh90" type="standard_car" route="WE" depart="287" />
    <vehicle id="veh91" type="standard_car" route="NS" depart="288" />
    <vehicle id="veh92" type="standard_car" route="WE" depart="288" />
    <vehicle id="veh93" type="standard_car" route="WE" depart="294" />
    <vehicle id="veh94" type="standard_car" route="NS" depart="299" />
    <vehicle id="veh95" type="standard_car" route="NS" depart="304" />
    <vehicle id="veh96" type="standard_car" route="SN" depart="314" />
    <vehicle id="veh97" type="standard_car" route="NS" depart="319" />
    <vehicle id="veh98" type="standard_car" route="WE" depart="320" />
    <vehicle id="veh99" type="standard_car" route="EW" depart="322" />
    <vehicle id="veh100" type="standard_car" route="SN" depart="327" />
    <vehicle id="veh101" type="standard_car" route="WE" depart="333" />
    <vehicle id="veh102" type="standard_car" route="SN" depart="339" />
    <vehicle id="veh103" type="standard_car" route="WE" depart="339" />
    <vehicle id="veh104" type="standard_car" route="EW" depart="347" />
    <vehicle id="veh105" type="standard_car" route="NS" depart="350" />
    <vehicle id="veh106" type="standard_car" route="NS" depart="351" />
    <vehicle id="veh107" type="standard_car" route="EW" depart="352" />
    <vehicle id="veh108" type="standard_car" route="WE" depart="353" />
    <vehicle id="veh109" type="standard_car" route="SN" depart="354" />
    <vehicle id="veh110" type="standard_car" route="WE" depart="364" />
    <vehicle id="veh111" type="standard_car" route="EW" depart="367" />
    <vehicle id="veh112" type="standard_car" route="WE" depart="372" />
    <vehicle id="veh113" type="standard_car" route="NS" depart="375" />
    <vehicle id="veh114" type="standard_car" route="SN" depart="378" />
    <vehicle id="veh115" type="standard_car" route="SN" depart="393" />
    <vehicle id="veh116" type="standard_car" route="EW" depart="394" />
    <vehicle id="veh117" type="standard_car" route="WE" depart="395" />
    <vehicle id="veh118" type="standard_car" route="SN" depart="401" />
    <vehicle id="veh119" type="standard_car" route="WE" depart="401" />
    <vehicle id="veh120" type="standard_car" route="NS" depart="407" />
    <vehicle id="veh121" type="standard_car" route="WE" depart="411" />
    <vehicle id="veh122" type="standard_car" route="EW" depart="412" />
    <vehicle id="veh123" type="standard_car" route="NS" depart="421" />
    <vehicle id="veh124" type="standard_car" route="WE" depart="424" />
    <vehicle id="veh125" type="standard_car" route="SN" depart="435" />
    <vehicle id="veh126" type="standard_car" route="NS" depart="436" />
    <vehicle id="veh127" type="standard_car" route="WE" depart="445" />
    <vehicle id="veh128" type="standard_car" route="SN" depart="451" />
    <vehicle id="veh129" type="standard_car" route="WE" depart="455" />
    <vehicle id="veh130" type="standard_car" route="EW" depart="456" />
    <vehicle id="veh131" type="standard_car" route="SN" depart="458" />
    <vehicle id="veh132" type="standard_car" route="EW" depart="462" />
    <vehicle id="veh133" type="standard_car" route="NS" depart="462" />
    <vehicle id="veh134" type="standard_car" route="NS" depart="463" />
    <vehicle id="veh135" type="standard_car" route="NS" depart="465" />
    <vehicle id="veh136" type="standard_car" route="WE" depart="465" />
    <vehicle id="veh137" type="standard_car" route="WE" depart="469" />
    <vehicle id="veh138" type="standard_car" route="SN" depart="475" />
    <vehicle id="veh139" type="standard_car" route="EW" depart="479" />
    <vehicle id="veh140" type="standard_car" route="SN" depart="492" />
    <vehicle id="veh141" type="standard_car" route="NS" depart="498" />
    <vehicle id="veh142" type="standard_car" route="NS" depart="498" />
    <vehicle id="veh143" type="standard_car" route="NS" depart="499" />
    <vehicle id="veh144" type="standard_car" route="SN" depart="505" />
    <vehicle id="veh145" type="standard_car" route="SN" depart="517" />
    <vehicle id="veh146" type="standard_car" route="EW" depart="523" />
    <vehicle id="veh147" type="standard_car" route="WE" depart="523" />
    <vehicle id="veh148" type="standard_car" route="WE" depart="526" />
    <vehicle id="veh149" type="standard_car" route="WE" depart="531" />
    <vehicle id="veh150" type="standard_car" route="WE" depart="542" />
    <vehicle id="veh151" type="standard_car" route="EW" depart="549" />
    <vehicle id="veh152" type="standard_car" route="EW" depart="551" />
    <vehicle id="veh153" type="standard_car" route="SN" depart="554" />
    <vehicle id="veh154" type="standard_car" route="EW" depart="555" />
    <vehicle id="veh155" type="standard_car" route="EW" depart="558" />
    <vehicle id="veh156" type="standard_car" route="NS" depart="564" />
    <vehicle id="veh157" type="standard_car" route="WE" depart="565" />
    <vehicle id="veh158" type="standard_car" route="EW" depart="568" />
    <vehicle id="veh159" type="standard_car" route="EW" depart="577" />
    <vehicle id="veh160" type="standard_car" route="WE" depart="579" />
    <vehicle id="veh161" type="standard_car" route="WE" depart="586" />
    <vehicle id="veh162" type="standard_car" route="EW" depart="588" />
    <vehicle id="veh163" type="standard_car" route="NS" depart="595" />
    <vehicle id="veh164" type="standard_car" route="EW" depart="597" />
    <vehicle id="veh165" type="standard_car" route="NS" depart="598" />
    <vehicle id="veh166" type="standard_car" route="EW" depart="612" />
    <vehicle id="veh167" type="standard_car" route="NS" depart="615" />
    <vehicle id="veh168" type="standard_car" route="EW" depart="616" />
    <vehicle id="veh169" type="standard_car" route="WE" depart="616" />
    <vehicle id="veh170" type="standard_car" route="WE" depart="617" />
    <vehicle id="veh171" type="standard_car" route="NS" depart="619" />
    <vehicle id="veh172" type="standard_car" route="WE" depart="619" />
    <vehicle id="veh173" type="standard_car" route="EW" depart="621" />
    <vehicle id="veh174" type="standard_car" route="EW" depart="622" />
    <vehicle id="veh175" type="standard_car" route="EW" depart="624" />
    <vehicle id="veh176" type="standard_car" route="EW" depart="632" />
    <vehicle id="veh177" type="standard_car" route="WE" depart="632" />
    <vehicle id="veh178" type="standard_car" route="EW" depart="649" />
    <vehicle id="veh179" type="standard_car" route="NS" depart="655" />
    <vehicle id="veh180" type="standard_car" route="WE" depart="659" />
    <vehicle id="veh181" type="standard_car" route="SN" depart="669" />
    <vehicle id="veh182" type="standard_car" route="EW" depart="671" />
    <vehicle id="veh183" type="standard_car" route="WE" depart="672" />
    <vehicle id="veh184" type="standard_car" route="SN" depart="678" />
    <vehicle id="veh185" type="standard_car" route="EW" depart="681" />
    <vehicle id="veh186" type="standard_car" route="WE" depart="685" />
    <vehicle id="veh187" type="standard_car" route="EW" depart="689" />
    <vehicle id="veh188" type="standard_car" route="NS" depart="696" />
    <vehicle id="veh189" type="standard_car" route="NS" depart="697" />
    <vehicle id="veh190" type="standard_car" route="NS" depart="698" />
    <vehicle id="veh191" type="standard_car" route="EW" depart="709" />
    <vehicle id="veh192" type="standard_car" route="SN" depart="716" />
    <vehicle id="veh193" type="standard_car" route="EW" depart="721" />
    <vehicle id="veh194" type="standard_car" route="SN" depart="721" />
    <vehicle id="veh195" type="standard_car" route="SN" depart="724" />
    <vehicle id="veh196" type="standard_car" route="WE" depart="725" />
    <vehicle id="veh197" type="standard_car" route="SN" depart="730" />
    <vehicle id="veh198" type="standard_car" route="SN" depart="736" />
    <vehicle id="veh199" type="standard_car" route="SN" depart="739" />
    <vehicle id="veh200" type="standard_car" route="NS" depart="741" />
    <vehicle id="veh201" type="standard_car" route="WE" depart="754" />
    <vehicle id="veh202" type="standard_car" route="WE" depart="757" />
    <vehicle id="veh203" type="standard_car" route="SN" depart="762" />
    <vehicle id="veh204" type="standard_car" route="EW" depart="763" />
    <vehicle id="veh205" type="standard_car" route="EW" depart="767" />
    <vehicle id="veh206" type="standard_car" route="SN" depart="774" />
    <vehicle id="veh207" type="standard_car" route="SN" depart="778" />
    <vehicle id="veh208" type="standard_car" route="SN" depart="790" />
    <vehicle id="veh209" type="standard_car" route="SN" depart="791" />
    <vehicle id="veh210" type="standard_car" route="SN" depart="793" />
    <vehicle id="veh211" type="standard_car" route="WE" depart="796" />
    <vehicle id="veh212" type="standard_car" route="WE" depart="796" />
    <vehicle id="veh213" type="standard_car" route="NS" depart="802" />
    <vehicle id="veh214" type="standard_car" route="NS" depart="803" />
    <vehicle id="veh215" type="standard_car" route="NS" depart="806" />
    <vehicle id="veh216" type="standard_car" route="EW" depart="807" />
    <vehicle id="veh217" type="standard_car" route="NS" depart="815" />
    <vehicle id="veh218" type="standard_car" route="WE" depart="822" />
    <vehicle id="veh219" type="standard_car" route="EW" depart="824" />
    <vehicle id="veh220" type="standard_car" route="SN" depart="827" />
    <vehicle id="veh221" type="standard_car" route="SN" depart="828" />
    <vehicle id="veh222" type="standard_car" route="WE" depart="833" />
    <vehicle id="veh223" type="standard_car" route="EW" depart="835" />
    <vehicle id="veh224" type="standard_car" route="EW" depart="840" />
    <vehicle id="veh225" type="standard_car" route="SN" depart="841" />
    <vehicle id="veh226" type="standard_car" route="WE" depart="842" />
    <vehicle id="veh227" type="standard_car" route="WE" depart="850" />
    <vehicle id="veh228" type="standard_car" route="SN" depart="852" />
    <vehicle id="veh229" type="standard_car" route="EW" depart="857" />
    <vehicle id="veh230" type="standard_car" route="NS" depart="860" />
    <vehicle id="veh231" type="standard_car" route="NS" depart="860" />
    <vehicle id="veh232" type="standard_car" route="WE" depart="860" />
    <vehicle id="veh233" type="standard_car" route="EW" depart="861" />
    <vehicle id="veh234" type="standard_car" route="EW" depart="871" />
    <vehicle id="veh235" type="standard_car" route="NS" depart="885" />
    <vehicle id="veh236" type="standard_car" route="SN" depart="887" />
    <vehicle id="veh237" type="standard_car" route="NS" depart="895" />
    <vehicle id="veh238" type="standard_car" route="NS" depart="901" />
    <vehicle id="veh239" type="standard_car" route="WE" depart="903" />
    <vehicle id="veh240" type="standard_car" route="NS" depart="906" />
    <vehicle id="veh241" type="standard_car" route="EW" depart="909" />
    <vehicle id="veh242" type="standard_car" route="NS" depart="910" />
    <vehicle id="veh243" type="standard_car" route="EW" depart="912" />
    <vehicle id="veh244" type="standard_car" route="SN" depart="915" />
    <vehicle id="veh245" type="standard_car" route="EW" depart="922" />
    <vehicle id="veh246" type="standard_car" route="SN" depart="927" />
    <vehicle id="veh247" type="standard_car" route="EW" depart="930" />
    <vehicle id="veh248" type="standard_car" route="NS" depart="931" />
    <vehicle id="veh249" type="standard_car" route="NS" depart="936" />
    <vehicle id="veh250" type="standard_car" route="NS" depart="942" />
    <vehicle id="veh251" type="standard_car" route="WE" depart="942" />
    <vehicle id="veh252" type="standard_car" route="SN" depart="955" />
    <vehicle id="veh253" type="standard_car" route="WE" depart="959" />
    <vehicle id="veh254" type="standard_car" route="WE" depart="960" />
    <vehicle id="veh255" type="standard_car" route="WE" depart="960" />
    <vehicle id="veh256" type="standard_car" route="EW" depart="962" />
    <vehicle id="veh257" type="standard_car" route="EW" depart="963" />
    <vehicle id="veh258" type="standard_car" route="SN" depart="964" />
    <vehicle id="veh259" type="standard_car" route="WE" depart="969" />
    <vehicle id="veh260" type="standard_car" route="NS" depart="975" />
    <vehicle id="veh261" type="standard_car" route="WE" depart="977" />
    <vehicle id="veh262" type="standard_car" route="SN" depart="983" />
    <vehicle id="veh263" type="standard_car" route="WE" depart="989" />
    <vehicle id="veh264" type="standard_car" route="EW" depart="996" />
    <vehicle id="veh265" type="standard_car" route="EW" depart="998" />
    <vehicle id="veh266" type="standard_car" route="WE" depart="1004" />
    <vehicle id="veh267" type="standard_car" route="NS" depart="1007" />
    <vehicle id="veh268" type="standard_car" route="NS" depart="1012" />
    <vehicle id="veh269" type="standard_car" route="SN" depart="1014" />
    <vehicle id="veh270" type="standard_car" route="SN" depart="1016" />
    <vehicle id="veh271" type="standard_car" route="EW" depart="1022" />
    <vehicle id="veh272" type="standard_car" route="WE" depart="1026" />
    <vehicle id="veh273" type="standard_car" route="SN" depart="1027" />
    <vehicle id="veh274" type="standard_car" route="WE" depart="1027" />
    <vehicle id="veh275" type="standard_car" route="NS" depart="1029" />
    <vehicle id="veh276" type="standard_car" route="WE" depart="1034" />
    <vehicle id="veh277" type="standard_car" route="NS" depart="1036" />
    <vehicle id="veh278" type="standard_car" route="NS" depart="1038" />
    <vehicle id="veh279" type="standard_car" route="SN" depart="1038" />
    <vehicle id="veh280" type="standard_car" route="SN" depart="1040" />
    <vehicle id="veh281" type="standard_car" route="WE" depart="1044" />
    <vehicle id="veh282" type="standard_car" route="WE" depart="1051" />
    <vehicle id="veh283" type="standard_car" route="NS" depart="1054" />
    <vehicle id="veh284" type="standard_car" route="EW" depart="1061" />
    <vehicle id="veh285" type="standard_car" route="WE" depart="1061" />
    <vehicle id="veh286" type="standard_car" route="SN" depart="1063" />
    <vehicle id="veh287" type="standard_car" route="EW" depart="1068" />
    <vehicle id="veh288" type="standard_car" route="SN" depart="1069" />
    <vehicle id="veh289" type="standard_car" route="SN" depart="1070" />
    <vehicle id="veh290" type="standard_car" route="EW" depart="1071" />
    <vehicle id="veh291" type="standard_car" route="WE" depart="1073" />
    <vehicle id="veh292" type="standard_car" route="SN" depart="1081" />
    <vehicle id="veh293" type="standard_car" route="WE" depart="1081" />
    <vehicle id="veh294" type="standard_car" route="NS" depart="1085" />
    <vehicle id="veh295" type="standard_car" route="WE" depart="1085" />
    <vehicle id="veh296" type="standard_car" route="EW" depart="1091" />
    <vehicle id="veh297" type="standard_car" route="WE" depart="1097" />
    <vehicle id="veh298" type="standard_car" route="WE" depart="1103" />
    <vehicle id="veh299" type="standard_car" route="NS" depart="1108" />
    <vehicle id="veh300" type="standard_car" route="NS" depart="1112" />
    <vehicle id="veh301" type="standard_car" route="EW" depart="1113" />
    <vehicle id="veh302" type="standard_car" route="EW" depart="1116" />
    <vehicle id="veh303" type="standard_car" route="SN" depart="1126" />
    <vehicle id="veh304" type="standard_car" route="WE" depart="1137" />
    <vehicle id="veh305" type="standard_car" route="WE" depart="1148" />
    <vehicle id="veh306" type="standard_car" route="NS" depart="1166" />
    <vehicle id="veh307" type="standard_car" route="EW" depart="1172" />
    <vehicle id="veh308" type="standard_car" route="NS" depart="1172" />
    <vehicle id="veh309" type="standard_car" route="WE" depart="1174" />
    <vehicle id="veh310" type="standard_car" route="SN" depart="1177" />
    <vehicle id="veh311" type="standard_car" route="EW" depart="1184" />
    <vehicle id="veh312" type="standard_car" route="NS" depart="1184" />
    <vehicle id="veh313" type="standard_car" route="EW" depart="1188" />
    <vehicle id="veh314" type="standard_car" route="WE" depart="1190" />
    <vehicle id="veh315" type="standard_car" route="SN" depart="1193" />
    <vehicle id="veh316" type="standard_car" route="EW" depart="1194" />
    <vehicle id="veh317" type="standard_car" route="EW" depart="1194" />
    <vehicle id="veh318" type="standard_car" route="EW" depart="1204" />
    <vehicle id="veh319" type="standard_car" route="SN" depart="1205" />
    <vehicle id="veh320" type="standard_car" route="NS" depart="1208" />
    <vehicle id="veh321" type="standard_car" route="NS" depart="1209" />
    <vehicle id="veh322" type="standard_car" route="WE" depart="1215" />
    <vehicle id="veh323" type="standard_car" route="SN" depart="1220" />
    <vehicle id="veh324" type="standard_car" route="SN" depart="1223" />
    <vehicle id="veh325" type="standard_car" route="NS" depart="1230" />
    <vehicle id="veh326" type="standard_car" route="NS" depart="1235" />
    <vehicle id="veh327" type="standard_car" route="SN" depart="1239" />
    <vehicle id="veh328" type="standard_car" route="SN" depart="1240" />
    <vehicle id="veh329" type="standard_car" route="NS" depart="1241" />
    <vehicle id="veh330" type="standard_car" route="WE" depart="1244" />
    <vehicle id="veh331" type="standard_car" route="NS" depart="1246" />
    <vehicle id="veh332" type="standard_car" route="WE" depart="1246" />
    <vehicle id="veh333" type="standard_car" route="EW" depart="1250" />
    <vehicle id="veh334" type="standard_car" route="EW" depart="1258" />
    <vehicle id="veh335" type="standard_car" route="WE" depart="1263" />
    <vehicle id="veh336" type="standard_car" route="NS" depart="1264" />
    <vehicle id="veh337" type="standard_car" route="WE" depart="1267" />
    <vehicle id="veh338" type="standard_car" route="EW" depart="1271" />
    <vehicle id="veh339" type="standard_car" route="EW" depart="1271" />
    <vehicle id="veh340" type="standard_car" route="NS" depart="1272" />
    <vehicle id="veh341" type="standard_car" route="NS" depart="1274" />
    <vehicle id="veh342" type="standard_car" route="EW" depart="1291" />
    <vehicle id="veh343" type="standard_car" route="NS" depart="1291" />
    <vehicle id="veh344" type="standard_car" route="NS" depart="1294" />
    <vehicle id="veh345" type="standard_car" route="EW" depart="1298" />
    <vehicle id="veh346" type="standard_car" route="SN" depart="1300" />
    <vehicle id="veh347" type="standard_car" route="NS" depart="1310" />
    <vehicle id="veh348" type="standard_car" route="NS" depart="1312" />
    <vehicle id="veh349" type="standard_car" route="WE" depart="1314" />
    <vehicle id="veh350" type="standard_car" route="WE" depart="1315" />
    <vehicle id="veh351" type="standard_car" route="SN" depart="1320" />
    <vehicle id="veh352" type="standard_car" route="NS" depart="1322" />
    <vehicle id="veh353" type="standard_car" route="WE" depart="1326" />
    <vehicle id="veh354" type="standard_car" route="WE" depart="1326" />
    <vehicle id="veh355" type="standard_car" route="EW" depart="1327" />
    <vehicle id="veh356" type="standard_car" route="WE" depart="1329" />
    <vehicle id="veh357" type="standard_car" route="WE" depart="1333" />
    <vehicle id="veh358" type="standard_car" route="SN" depart="1338" />
    <vehicle id="veh359" type="standard_car" route="NS" depart="1339" />
    <vehicle id="veh360" type="standard_car" route="WE" depart="1344" />
    <vehicle id="veh361" type="standard_car" route="EW" depart="1345" />
    <vehicle id="veh362" type="standard_car" route="NS" depart="1355" />
    <vehicle id="veh363" type="standard_car" route="SN" depart="1359" />
    <vehicle id="veh364" type="standard_car" route="EW" depart="1361" />
    <vehicle id="veh365" type="standard_car" route="SN" depart="1361" />
    <vehicle id="veh366" type="standard_car" route="SN" depart="1365" />
    <vehicle id="veh367" type="standard_car" route="NS" depart="1378" />
    <vehicle id="veh368" type="standard_car" route="EW" depart="1379" />
    <vehicle id="veh369" type="standard_car" route="NS" depart="1379" />
    <vehicle id="veh370" type="standard_car" route="NS" depart="1386" />
    <vehicle id="veh371" type="standard_car" route="SN" depart="1392" />
    <vehicle id="veh372" type="standard_car" route="SN" depart="1393" />
    <vehicle id="veh373" type="standard_car" route="WE" depart="1400" />
    <vehicle id="veh374" type="standard_car" route="WE" depart="1414" />
    <vehicle id="veh375" type="standard_car" route="SN" depart="1420" />
    <vehicle id="veh376" type="standard_car" route="NS" depart="1424" />
    <vehicle id="veh377" type="standard_car" route="EW" depart="1425" />
    <vehicle id="veh378" type="standard_car" route="NS" depart="1430" />
    <vehicle id="veh379" type="standard_car" route="SN" depart="1437" />
    <vehicle id="veh380" type="standard_car" route="EW" depart="1438" />
    <vehicle id="veh381" type="standard_car" route="EW" depart="1438" />
    <vehicle id="veh382" type="standard_car" route="NS" depart="1442" />
    <vehicle id="veh383" type="standard_car" route="WE" depart="1445" />
    <vehicle id="veh384" type="standard_car" route="WE" depart="1445" />
    <vehicle id="veh385" type="standard_car" route="NS" depart="1451" />
    <vehicle id="veh386" type="standard_car" route="SN" depart="1452" />
    <vehicle id="veh387" type="standard_car" route="WE" depart="1461" />
    <vehicle id="veh388" type="standard_car" route="SN" depart="1462" />
    <vehicle id="veh389" type="standard_car" route="NS" depart="1465" />
    <vehicle id="veh390" type="standard_car" route="SN" depart="1465" />
    <vehicle id="veh391" type="standard_car" route="NS" depart="1470" />
    <vehicle id="veh392" type="standard_car" route="NS" depart="1473" />
    <vehicle id="veh393" type="standard_car" route="SN" depart="1478" />
    <vehicle id="veh394" type="standard_car" route="SN" depart="1479" />
    <vehicle id="veh395" type="standard_car" route="NS" depart="1482" />
    <vehicle id="veh396" type="standard_car" route="NS" depart="1484" />
    <vehicle id="veh397" type="standard_car" route="WE" depart="1486" />
    <vehicle id="veh398" type="standard_car" route="SN" depart="1494" />
    <vehicle id="veh399" type="standard_car" route="NS" depart="1497" />
    <vehicle id="veh400" type="standard_car" route="WE" depart="1501" />
    <vehicle id="veh401" type="standard_car" route="NS" depart="1509" />
    <vehicle id="veh402" type="standard_car" route="WE" depart="1518" />
    <vehicle id="veh403" type="standard_car" route="SN" depart="1523" />
    <vehicle id="veh404" type="standard_car" route="SN" depart="1525" />
    <vehicle id="veh405" type="standard_car" route="SN" depart="1526" />
    <vehicle id="veh406" type="standard_car" route="SN" depart="1528" />
    <vehicle id="veh407" type="standard_car" route="EW" depart="1530" />
    <vehicle id="veh408" type="standard_car" route="SN" depart="1532" />
    <vehicle id="veh409" type="standard_car" route="SN" depart="1544" />
    <vehicle id="veh410" type="standard_car" route="WE" depart="1546" />
    <vehicle id="veh411" type="standard_car" route="EW" depart="1548" />