<routes>
    <vType id="standard_car" accel="0.8" decel="4.5" sigma="0.5" length="5" minGap="2.5" maxSpeed="16.67" guiShape="passenger"/>
    <route id="NS" edges="n_to_c c_to_s"/>
    <route id="SN" edges="s_to_c c_to_n"/>
    <route id="EW" edges="e_to_c c_to_w"/>
    <route id="WE" edges="w_to_c c_to_e"/>
    <vehicle id="veh0" type="standard_car" route="WE" depart="0" />
    <vehicle id="veh1" type="standard_car" route="NS" depart="1" />
    <vehicle id="veh2" type="standard_car" route="EW" depart="2" />
    <vehicle id="veh3" type="standard_car" route="EW" depart="7" />
    <vehicle id="veh4" type="standard_car" route="NS" depart="7" />
    <vehicle id="veh5" type="standard_car" route="NS" depart="7" />
    <vehicle id="veh6" type="standard_car" route="EW" depart="8" />
    <vehicle id="veh7" type="standard_car" route="EW" depart="8" />
    <vehicle id="veh8" type="standard_car" route="SN" depart="9" />
    <vehicle id="veh9" type="standard_car" route="WE" depart="9" />
    <vehicle id="veh10" type="standard_car" route="NS" depart="10" />
    <vehicle id="veh11" type="standard_car" route="SN" depart="11" />
    <vehicle id="veh12" type="standard_car" route="WE" depart="11" />
    <vehicle id="veh13" type="standard_car" route="WE" depart="11" />
    <vehicle id="veh14" type="standard_car" route="WE" depart="11" />
    <vehicle id="veh15" type="standard_car" route="WE" depart="13" />
    <vehicle id="veh16" type="standard_car" route="WE" depart="16" />
    <vehicle id="veh17" type="standard_car" route="SN" depart="18" />
    <vehicle id="veh18" type="standard_car" route="SN" depart="23" />
    <vehicle id="veh19" type="standard_car" route="SN" depart="24" />
    <vehicle id="veh20" type="standard_car" route="SN" depart="25" />
    <vehicle id="veh21" type="standard_car" route="SN" depart="25" />
    <vehicle id="veh22" type="standard_car" route="WE" depart="25" />
    <vehicle id="veh23" type="standard_car" route="NS" depart="28" />
    <vehicle id="veh24" type="standard_car" route="SN" depart="30" />
    <vehicle id="veh25" type="standard_car" route="WE" depart="35" />
    <vehicle id="veh26" type="standard_car" route="WE" depart="35" />
    <vehicle id="veh27" type="standard_car" route="SN" depart="36" />
    <vehicle id="veh28" type="standard_car" route="SN" depart="36" />
    <vehicle id="veh29" type="standard_car" route="EW" depart="37" />
    <vehicle id="veh30" type="standard_car" route="NS" depart="37" />
    <vehicle id="veh31" type="standard_car" route="SN" depart="39" />
    <vehicle id="veh32" type="standard_car" route="EW" depart="41" />
    <vehicle id="veh33" type="standard_car" route="NS" depart="43" />
    <vehicle id="veh34" type="standard_car" route="EW" depart="44" />
    <vehicle id="veh35" type="standard_car" route="WE" depart="44" />
    <vehicle id="veh36" type="standard_car" route="EW" depart="45" />
    <vehicle id="veh37" type="standard_car" route="WE" depart="46" />
    <vehicle id="veh38" type="standard_car" route="WE" depart="46" />
    <vehicle id="veh39" type="standard_car" route="EW" depart="47" />
    <vehicle id="veh40" type="standard_car" route="NS" depart="47" />
    <vehicle id="veh41" type="standard_car" route="EW" depart="49" />
    <vehicle id="veh42" type="standard_car" route="NS" depart="49" />
    <vehicle id="veh43" type="standard_car" route="EW" depart="50" />
    <vehicle id="veh44" type="standard_car" route="WE" depart="50" />
    <vehicle id="veh45" type="standard_car" route="EW" depart="51" />
    <vehicle id="veh46" type="standard_car" route="SN" depart="55" />
    <vehicle id="veh47" type="standard_car" route="WE" depart="55" />
    <vehicle id="veh48" type="standard_car" route="WE" depart="55" />
    <vehicle id="veh49" type="standard_car" route="SN" depart="56" />
    <vehicle id="veh50" type="standard_car" route="EW" depart="58" />
    <vehicle id="veh51" type="standard_car" route="SN" depart="58" />
    <vehicle id="veh52" type="standard_car" route="NS" depart="59" />
    <vehicle id="veh53" type="standard_car" route="EW" depart="60" />
    <vehicle id="veh54" type="standard_car" route="EW" depart="61" />
    <vehicle id="veh55" type="standard_car" route="WE" depart="61" />
    <vehicle id="veh56" type="standard_car" route="EW" depart="62" />
    <vehicle id="veh57" type="standard_car" route="EW" depart="63" />
    <vehicle id="veh58" type="standard_car" route="EW" depart="65" />
    <vehicle id="veh59" type="standard_car" route="WE" depart="65" />
    <vehicle id="veh60" type="standard_car" route="WE" depart="66" />
    <vehicle id="veh61" type="standard_car" route="NS" depart="67" />
    <vehicle id="veh62" type="standard_car" route="NS" depart="70" />
    <vehicle id="veh63" type="standard_car" route="EW" depart="71" />
    <vehicle id="veh64" type="standard_car" route="SN" depart="71" />
    <vehicle id="veh65" type="standard_car" route="SN" depart="74" />
    <vehicle id="veh66" type="standard_car" route="WE" depart="74" />
    <vehicle id="veh67" type="standard_car" route="WE" depart="76" />
    <vehicle id="veh68" type="standard_car" route="SN" depart="77" />
    <vehicle id="veh69" type="standard_car" route="WE" depart="80" />
    <vehicle id="veh70" type="standard_car" route="NS" depart="82" />
    <vehicle id="veh71" type="standard_car" route="NS" depart="84" />
    <vehicle id="veh72" type="standard_car" route="NS" depart="86" />
    <vehicle id="veh73" type="standard_car" route="NS" depart="86" />
    <vehicle id="veh74" type="standard_car" route="SN" depart="86" />
    <vehicle id="veh75" type="standard_car" route="WE" depart="86" />
    <vehicle id="veh76" type="standard_car" route="WE" depart="87" />
    <vehicle id="veh77" type="standard_car" route="SN" depart="89" />
    <vehicle id="veh78" type="standard_car" route="WE" depart="89" />
    <vehicle id="veh79" type="standard_car" route="SN" depart="90" />
    <vehicle id="veh80" type="standard_car" route="WE" depart="90" />
    <vehicle id="veh81" type="standard_car" route="SN" depart="91" />
    <vehicle id="veh82" type="standard_car" route="NS" depart="92" />
    <vehicle id="veh83" type="standard_car" route="WE" depart="92" />
    <vehicle id="veh84" type="standard_car" route="SN" depart="93" />
    <vehicle id="veh85" type="standard_car" route="NS" depart="94" />
    <vehicle id="veh86" type="standard_car" route="SN" depart="94" />
    <vehicle id="veh87" type="standard_car" route="WE" depart="95" />
    <vehicle id="veh88" type="standard_car" route="WE" depart="95" />
    <vehicle id="veh89" type="standard_car" route="EW" depart="97" />
    <vehicle id="veh90" type="standard_car" route="WE" depart="97" />
    <vehicle id="veh91" type="standard_car" route="EW" depart="100" />
    <vehicle id="veh92" type="standard_car" route="EW" depart="101" />
    <vehicle id="veh93" type="standard_car" route="SN" depart="101" />
    <vehicle id="veh94" type="standard_car" route="EW" depart="102" />
    <vehicle id="veh95" type="standard_car" route="WE" depart="102" />
    <vehicle id="veh96" type="standard_car" route="SN" depart="104" />
    <vehicle id="veh97" type="standard_car" route="WE" depart="105" />
    <vehicle id="veh98" type="standard_car" route="SN" depart="106" />
    <vehicle id="veh99" type="standard_car" route="EW" depart="109" />
    <vehicle id="veh100" type="standard_car" route="SN" depart="111" />
    <vehicle id="veh101" type="standard_car" route="EW" depart="112" />
    <vehicle id="veh102" type="standard_car" route="EW" depart="118" />
    <vehicle id="veh103" type="standard_car" route="NS" depart="121" />
    <vehicle id="veh104" type="standard_car" route="WE" depart="121" />
    <vehicle id="veh105" type="standard_car" route="WE" depart="122" />
    <vehicle id="veh106" type="standard_car" route="EW" depart="123" />
    <vehicle id="veh107" type="standard_car" route="WE" depart="123" />
    <vehicle id="veh108" type="standard_car" route="WE" depart="124" />
    <vehicle id="veh109" type="standard_car" route="EW" depart="125" />
    <vehicle id="veh110" type="standard_car" route="WE" depart="128" />
    <vehicle id="veh111" type="standard_car" route="WE" depart="130" />
    <vehicle id="veh112" type="standard_car" route="EW" depart="132" />
    <vehicle id="veh113" type="standard_car" route="NS" depart="132" />
    <vehicle id="veh114" type="standard_car" route="SN" depart="132" />
    <vehicle id="veh115" type="standard_car" route="WE" depart="133" />
    <vehicle id="veh116" type="standard_car" route="SN" depart="136" />
    <vehicle id="veh117" type="standard_car" route="WE" depart="139" />
    <vehicle id="veh118" type="standard_car" route="EW" depart="140" />
    <vehicle id="veh119" type="standard_car" route="SN" depart="140" />
    <vehicle id="veh120" type="standard_car" route="SN" depart="148" />
    <vehicle id="veh121" type="standard_car" route="WE" depart="148" />
    <vehicle id="veh122" type="standard_car" route="NS" depart="149" />
    <vehicle id="veh123" type="standard_car" route="SN" depart="149" />
    <vehicle id="veh124" type="standard_car" route="WE" depart="150" />
    <vehicle id="veh125" type="standard_car" route="SN" depart="153" />
    <vehicle id="veh126" type="standard_car" route="SN" depart="153" />
    <vehicle id="veh127" type="standard_car" route="WE" depart="154" />
    <vehicle id="veh128" type="standard_car" route="NS" depart="155" />
    <vehicle id="veh129" type="standard_car" route="SN" depart="156" />
    <vehicle id="veh130" type="standard_car" route="NS" depart="157" />
    <vehicle id="veh131" type="standard_car" route="SN" depart="160" />
    <vehicle id="veh132" type="standard_car" route="SN" depart="161" />
    <vehicle id="veh133" type="standard_car" route="SN" depart="161" />
    <vehicle id="veh134" type="standard_car" route="WE" depart="163" />
    <vehicle id="veh135" type="standard_car" route="WE" depart="163" />
    <vehicle id="veh136" type="standard_car" route="NS" depart="164" />
    <vehicle id="veh137" type="standard_car" route="WE" depart="164" />
    <vehicle id="veh138" type="standard_car" route="EW" depart="168" />
    <vehicle id="veh139" type="standard_car" route="NS" depart="170" />
    <vehicle id="veh140" type="standard_car" route="SN" depart="170" />
    <vehicle id="veh141" type="standard_car" route="WE" depart="170" />
    <vehicle id="veh142" type="standard_car" route="SN" depart="173" />
    <vehicle id="veh143" type="standard_car" route="EW" depart="174" />
    <vehicle id="veh144" type="standard_car" route="NS" depart="176" />
    <vehicle id="veh145" type="standard_car" route="SN" depart="176" />
    <vehicle id="veh146" type="standard_car" route="EW" depart="180" />
    <vehicle id="veh147" type="standard_car" route="SN" depart="180" />
    <vehicle id="veh148" type="standard_car" route="EW" depart="182" />
    <vehicle id="veh149" type="standard_car" route="NS" depart="183" />
    <vehicle id="veh150" type="standard_car" route="EW" depart="186" />
    <vehicle id="veh151" type="standard_car" route="EW" depart="187" />
    <vehicle id="veh152" type="standard_car" route="NS" depart="187" />
    <vehicle id="veh153" type="standard_car" route="SN" depart="187" />
    <vehicle id="veh154" type="standard_car" route="EW" depart="188" />
    <vehicle id="veh155" type="standard_car" route="EW" depart="188" />
    <vehicle id="veh156" type="standard_car" route="SN" depart="189" />
    <vehicle id="veh157" type="standard_car" route="EW" depart="190" />
    <vehicle id="veh158" type="standard_car" route="SN" depart="190" />
    <vehicle id="veh159" type="standard_car" route="SN" depart="192" />
    <vehicle id="veh160" type="standard_car" route="EW" depart="193" />
    <vehicle id="veh161" type="standard_car" route="WE" depart="195" />
    <vehicle id="veh162" type="standard_car" route="SN" depart="196" />
    <vehicle id="veh163" type="standard_car" route="EW" depart="197" />
    <vehicle id="veh164" type="standard_car" route="WE" depart="197" />
    <vehicle id="veh165" type="standard_car" route="EW" depart="198" />
    <vehicle id="veh166" type="standard_car" route="WE" depart="198" />
    <vehicle id="veh167" type="standard_car" route="NS" depart="200" />
    <vehicle id="veh168" type="standard_car" route="SN" depart="200" />
    <vehicle id="veh169" type="standard_car" route="NS" depart="202" />
    <vehicle id="veh170" type="standard_car" route="NS" depart="202" />
    <vehicle id="veh171" type="standard_car" route="WE" depart="203" />
    <vehicle id="veh172" type="standard_car" route="NS" depart="205" />
    <vehicle id="veh173" type="standard_car" route="SN" depart="206" />
    <vehicle id="veh174" type="standard_car" route="EW" depart="207" />
    <vehicle id="veh175" type="standard_car" route="SN" depart="208" />
    <vehicle id="veh176" type="standard_car" route="EW" depart="209" />
    <vehicle id="veh177" type="standard_car" route="SN" depart="211" />
    <vehicle id="veh178" type="standard_car" route="SN" depart="212" />
    <vehicle id="veh179" type="standard_car" route="WE" depart="212" />
    <vehicle id="veh180" type="standard_car" route="SN" depart="213" />
    <vehicle id="veh181" type="standard_car" route="SN" depart="214" />
    <vehicle id="veh182" type="standard_car" route="SN" depart="220" />
    <vehicle id="veh183" type="standard_car" route="EW" depart="221" />
    <vehicle id="veh184" type="standard_car" route="SN" depart="221" />
    <vehicle id="veh185" type="standard_car" route="NS" depart="222" />
    <vehicle id="veh186" type="standard_car" route="WE" depart="222" />
    <vehicle id="veh187" type="standard_car" route="WE" depart="222" />
    <vehicle id="veh188" type="standard_car" route="WE" depart="224" />
    <vehicle id="veh189" type="standard_car" route="NS" depart="225" />
    <vehicle id="veh190" type="standard_car" route="SN" depart="227" />
    <vehicle id="veh191" type="standard_car" route="SN" depart="227" />
    <vehicle id="veh192" type="standard_car" route="SN" depart="228" />
    <vehicle id="veh193" type="standard_car" route="WE" depart="231" />
    <vehicle id="veh194" type="standard_car" route="NS" depart="232" />
    <vehicle id="veh195" type="standard_car" route="SN" depart="232" />
    <vehicle id="veh196" type="standard_car" route="WE" depart="233" />
    <vehicle id="veh197" type="standard_car" route="WE" depart="237" />
    <vehicle id="veh198" type="standard_car" route="EW" depart="239" />
    <vehicle id="veh199" type="standard_car" route="WE" depart="239" />
    <vehicle id="veh200" type="standard_car" route="EW" depart="240" />
    <vehicle id="veh201" type="standard_car" route="WE" depart="241" />
    <vehicle id="veh202" type="standard_car" route="NS" depart="242" />
    <vehicle id="veh203" type="standard_car" route="EW" depart="246" />
    <vehicle id="veh204" type="standard_car" route="EW" depart="248" />
    <vehicle id="veh205" type="standard_car" route="NS" depart="252" />
    <vehicle id="veh206" type="standard_car" route="WE" depart="252" />
    <vehicle id="veh207" type="standard_car" route="EW" depart="253" />
    <vehicle id="veh208" type="standard_car" route="EW" depart="254" />
    <vehicle id="veh209" type="standard_car" route="SN" depart="255" />
    <vehicle id="veh210" type="standard_car" route="EW" depart="256" />
    <vehicle id="veh211" type="standard_car" route="EW" depart="256" />
    <vehicle id="veh212" type="standard_car" route="EW" depart="256" />
    <vehicle id="veh213" type="standard_car" route="NS" depart="258" />
    <vehicle id="veh214" type="standard_car" route="EW" depart="260" />
    <vehicle id="veh215" type="standard_car" route="WE" depart="260" />
    <vehicle id="veh216" type="standard_car" route="WE" depart="263" />
    <vehicle id="veh217" type="standard_car" route="NS" depart="264" />
    <vehicle id="veh218" type="standard_car" route="SN" depart="264" />
    <vehicle id="veh219" type="standard_car" route="NS" depart="265" />
    <vehicle id="veh220" type="standard_car" route="NS" depart="266" />
    <vehicle id="veh221" type="standard_car" route="EW" depart="267" />
    <vehicle id="veh222" type="standard_car" route="EW" depart="267" />
    <vehicle id="veh223" type="standard_car" route="WE" depart="267" />
    <vehicle id="veh224" type="standard_car" route="WE" depart="267" />
    <vehicle id="veh225" type="standard_car" route="NS" depart="269" />
    <vehicle id="veh226" type="standard_car" route="WE" depart="269" />
    <vehicle id="veh227" type="standard_car" route="SN" depart="270" />
    <vehicle id="veh228" type="standard_car" route="SN" depart="271" />
    <vehicle id="veh229" type="standard_car" route="WE" depart="271" />
    <vehicle id="veh230" type="standard_car" route="WE" depart="273" />
    <vehicle id="veh231" type="standard_car" route="NS" depart="275" />
    <vehicle id="veh232" type="standard_car" route="EW" depart="276" />
    <vehicle id="veh233" type="standard_car" route="NS" depart="276" />
    <vehicle id="veh234" type="standard_car" route="SN" depart="276" />
    <vehicle id="veh235" type="standard_car" route="NS" depart="279" />
    <vehicle id="veh236" type="standard_car" route="WE" depart="282" />
    <vehicle id="veh237" type="standard_car" route="WE" depart="282" />
    <vehicle id="veh238" type="standard_car" route="EW" depart="283" />
    <vehicle id="veh239" type="standard_car" route="WE" depart="286" />
    <vehicle id="veh240" type="standard_car" route="NS" depart="287" />
    <vehicle id="veh241" type="standard_car" route="SN" depart="287" />
    <vehicle id="veh242" type="standard_car" route="WE" depart="290" />
    <vehicle id="veh243" type="standard_car" route="NS" depart="292" />
    <vehicle id="veh244" type="standard_car" route="NS" depart="295" />
    <vehicle id="veh245" type="standard_car" route="SN" depart="295" />
    <vehicle id="veh246" type="standard_car" route="EW" depart="298" />
    <vehicle id="veh247" type="standard_car" route="NS" depart="298" />
    <vehicle id="veh248" type="standard_car" route="NS" depart="298" />
    <vehicle id="veh249" type="standard_car" route="SN" depart="298" />
    <vehicle id="veh250" type="standard_car" route="NS" depart="299" />
    <vehicle id="veh251" type="standard_car" route="SN" depart="299" />
    <vehicle id="veh252" type="standard_car" route="SN" depart="299" />
    <vehicle id="veh253" type="standard_car" route="NS" depart="302" />
    <vehicle id="veh254" type="standard_car" route="SN" depart="302" />
    <vehicle id="veh255" type="standard_car" route="EW" depart="306" />
    <vehicle id="veh256" type="standard_car" route="NS" depart="306" />
    <vehicle id="veh257" type="standard_car" route="SN" depart="306" />
    <vehicle id="veh258" type="standard_car" route="WE" depart="307" />
    <vehicle id="veh259" type="standard_car" route="NS" depart="309" />
    <vehicle id="veh260" type="standard_car" route="NS" depart="310" />
    <vehicle id="veh261" type="standard_car" route="EW" depart="311" />
    <vehicle id="veh262" type="standard_car" route="EW" depart="311" />
    <vehicle id="veh263" type="standard_car" route="EW" depart="311" />
    <vehicle id="veh264" type="standard_car" route="WE" depart="312" />
    <vehicle id="veh265" type="standard_car" route="SN" depart="314" />
    <vehicle id="veh266" type="standard_car" route="WE" depart="315" />
    <vehicle id="veh267" type="standard_car" route="SN" depart="318" />
    <vehicle id="veh268" type="standard_car" route="SN" depart="319" />
    <vehicle id="veh269" type="standard_car" route="WE" depart="319" />
    <vehicle id="veh270" type="standard_car" route="WE" depart="322" />
    <vehicle id="veh271" type="standard_car" route="WE" depart="322" />
    <vehicle id="veh272" type="standard_car" route="WE" depart="326" />
    <vehicle id="veh273" type="standard_car" route="WE" depart="326" />
    <vehicle id="veh274" type="standard_car" route="NS" depart="327" />
    <vehicle id="veh275" type="standard_car" route="NS" depart="327" />
    <vehicle id="veh276" type="standard_car" route="SN" depart="331" />
    <vehicle id="veh277" type="standard_car" route="SN" depart="331" />
    <vehicle id="veh278" type="standard_car" route="WE" depart="331" />
    <vehicle id="veh279" type="standard_car" route="NS" depart="332" />
    <vehicle id="veh280" type="standard_car" route="SN" depart="332" />
    <vehicle id="veh281" type="standard_car" route="EW" depart="334" />
    <vehicle id="veh282" type="standard_car" route="EW" depart="334" />
    <vehicle id="veh283" type="standard_car" route="NS" depart="335" />
    <vehicle id="veh284" type="standard_car" route="SN" depart="336" />
    <vehicle id="veh285" type="standard_car" route="SN" depart="337" />
    <vehicle id="veh286" type="standard_car" route="NS" depart="339" />
    <vehicle id="veh287" type="standard_car" route="WE" depart="342" />
    <vehicle id="veh288" type="standard_car" route="NS" depart="343" />
    <vehicle id="veh289" type="standard_car" route="NS" depart="344" />
    <vehicle id="veh290" type="standard_car" route="WE" depart="344" />
    <vehicle id="veh291" type="standard_car" route="WE" depart="345" />
    <vehicle id="veh292" type="standard_car" route="EW" depart="346" />
    <vehicle id="veh293" type="standard_car" route="EW" depart="348" />
    <vehicle id="veh294" type="standard_car" route="WE" depart="348" />
    <vehicle id="veh295" type="standard_car" route="EW" depart="352" />
    <vehicle id="veh296" type="standard_car" route="SN" depart="352" />
    <vehicle id="veh297" type="standard_car" route="EW" depart="353" />
    <vehicle id="veh298" type="standard_car" route="NS" depart="353" />
    <vehicle id="veh299" type="standard_car" route="EW" depart="355" />
    <vehicle id="veh300" type="standard_car" route="NS" depart="355" />
    <vehicle id="veh301" type="standard_car" route="NS" depart="356" />
    <vehicle id="veh302" type="standard_car" route="SN" depart="356" />
    <vehicle id="veh303" type="standard_car" route="EW" depart="358" />
    <vehicle id="veh304" type="standard_car" route="NS" depart="359" />
    <vehicle id="veh305" type="standard_car" route="WE" depart="359" />
    <vehicle id="veh306" type="standard_car" route="SN" depart="360" />
    <vehicle id="veh307" type="standard_car" route="SN" depart="362" />
    <vehicle id="veh308" type="standard_car" route="EW" depart="364" />
    <vehicle id="veh309" type="standard_car" route="NS" depart="364" />
    <vehicle id="veh310" type="standard_car" route="SN" depart="366" />
    <vehicle id="veh311" type="standard_car" route="WE" depart="366" />
    <vehicle id="veh312" type="standard_car" route="EW" depart="371" />
    <vehicle id="veh313" type="standard_car" route="SN" depart="371" />
    <vehicle id="veh314" type="standard_car" route="WE" depart="374" />
    <vehicle id="veh315" type="standard_car" route="SN" depart="376" />
    <vehicle id="veh316" type="standard_car" route="EW" depart="377" />
    <vehicle id="veh317" type="standard_car" route="NS" depart="378" />
    <vehicle id="veh318" type="standard_car" route="EW" depart="379" />
    <vehicle id="veh319" type="standard_car" route="EW" depart="379" />
    <vehicle id="veh320" type="standard_car" route="SN" depart="380" />
    <vehicle id="veh321" type="standard_car" route="SN" depart="381" />
    <vehicle id="veh322" type="standard_car" route="EW" depart="382" />
    <vehicle id="veh323" type="standard_car" route="NS" depart="382" />
    <vehicle id="veh324" type="standard_car" route="WE" depart="386" />
    <vehicle id="veh325" type="standard_car" route="EW" depart="387" />
    <vehicle id="veh326" type="standard_car" route="EW" depart="387" />
    <vehicle id="veh327" type="standard_car" route="EW" depart="388" />
    <vehicle id="veh328" type="standard_car" route="NS" depart="390" />
    <vehicle id="veh329" type="standard_car" route="EW" depart="391" />
    <vehicle id="veh330" type="standard_car" route="SN" depart="391" />
    <vehicle id="veh331" type="standard_car" route="NS" depart="392" />
    <vehicle id="veh332" type="standard_car" route="NS" depart="393" />
    <vehicle id="veh333" type="standard_car" route="SN" depart="393" />
    <vehicle id="veh334" type="standard_car" route="SN" depart="394" />
    <vehicle id="veh335" type="standard_car" route="NS" depart="396" />
    <vehicle id="veh336" type="standard_car" route="EW" depart="398" />
    <vehicle id="veh337" type="standard_car" route="SN" depart="398" />
    <vehicle id="veh338" type="standard_car" route="EW" depart="399" />
    <vehicle id="veh339" type="standard_car" route="NS" depart="402" />
    <vehicle id="veh340" type="standard_car" route="NS" depart="402" />
    <vehicle id="veh341" type="standard_car" route="EW" depart="404" />
    <vehicle id="veh342" type="standard_car" route="EW" depart="404" />
    <vehicle id="veh343" type="standard_car" route="NS" depart="404" />
    <vehicle id="veh344" type="standard_car" route="WE" depart="405" />
    <vehicle id="veh345" type="standard_car" route="SN" depart="407" />
    <vehicle id="veh346" type="standard_car" route="EW" depart="409" />
    <vehicle id="veh347" type="standard_car" route="WE" depart="409" />
    <vehicle id="veh348" type="standard_car" route="EW" depart="411" />
    <vehicle id="veh349" type="standard_car" route="EW" depart="414" />
    <vehicle id="veh350" type="standard_car" route="WE" depart="416" />
    <vehicle id="veh351" type="standard_car" route="NS" depart="417" />
    <vehicle id="veh352" type="standard_car" route="WE" depart="423" />
    <vehicle id="veh353" type="standard_car" route="WE" depart="423" />
    <vehicle id="veh354" type="standard_car" route="WE" depart="424" />
    <vehicle id="veh355" type="standard_car" route="SN" depart="425" />
    <vehicle id="veh356" type="standard_car" route="WE" depart="425" />
    <vehicle id="veh357" type="standard_car" route="SN" depart="427" />
    <vehicle id="veh358" type="standard_car" route="SN" depart="430" />
    <vehicle id="veh359" type="standard_car" route="WE" depart="431" />
    <vehicle id="veh360" type="standard_car" route="EW" depart="432" />
    <vehicle id="veh361" type="standard_car" route="WE" depart="433" />
    <vehicle id="veh362" type="standard_car" route="WE" depart="436" />
    <vehicle id="veh363" type="standard_car" route="NS" depart="437" />
    <vehicle id="veh364" type="standard_car" route="NS" depart="437" />
    <vehicle id="veh365" type="standard_car" route="NS" depart="438" />
    <vehicle id="veh366" type="standard_car" route="WE" depart="440" />
    <vehicle id="veh367" type="standard_car" route="NS" depart="447" />
    <vehicle id="veh368" type="standard_car" route="SN" depart="447" />
    <vehicle id="veh369" type="standard_car" route="WE" depart="448" />
    <vehicle id="veh370" type="standard_car" route="NS" depart="450" />
    <vehicle id="veh371" type="standard_car" route="NS" depart="450" />
    <vehicle id="veh372" type="standard_car" route="EW" depart="451" />
    <vehicle id="veh373" type="standard_car" route="EW" depart="452" />
    <vehicle id="veh374" type="standard_car" route="EW" depart="454" />
    <vehicle id="veh375" type="standard_car" route="EW" depart="454" />
    <vehicle id="veh376" type="standard_car" route="NS" depart="455" />
    <vehicle id="veh377" type="standard_car" route="EW" depart="456" />
    <vehicle id="veh378" type="standard_car" route="EW" depart="457" />
    <vehicle id="veh379" type="standard_car" route="NS" depart="459" />
    <vehicle id="veh380" type="standard_car" route="NS" depart="460" />
    <vehicle id="veh381" type="standard_car" route="EW" depart="461" />
    <vehicle id="veh382" type="standard_car" route="WE" depart="461" />
    <vehicle id="veh383" type="standard_car" route="SN" depart="462" />
    <vehicle id="veh384" type="standard_car" route="WE" depart="463" />
    <vehicle id="veh385" type="standard_car" route="NS" depart="464" />
    <vehicle id="veh386" type="standard_car" route="NS" depart="465" />
    <vehicle id="veh387" type="standard_car" route="EW" depart="466" />
    <vehicle id="veh388" type="standard_car" route="NS" depart="468" />
    <vehicle id="veh389" type="standard_car" route="SN" depart="470" />
    <vehicle id="veh390" type="standard_car" route="SN" depart="471" />
    <vehicle id="veh391" type="standard_car" route="EW" depart="472" />
    <vehicle id="veh392" type="standard_car" route="WE" depart="475" />
    <vehicle id="veh393" type="standard_car" route="EW" depart="476" />
    <vehicle id="veh394" type="standard_car" route="WE" depart="476" />
    <vehicle id="veh395" type="standard_car" route="NS" depart="479" />
    <vehicle id="veh396" type="standard_car" route="EW" depart="480" />
    <vehicle id="veh397" type="standard_car" route="SN" depart="482" />
    <vehicle id="veh398" type="standard_car" route="WE" depart="484" />
    <vehicle id="veh399" type="standard_car" route="EW" depart="485" />
    <vehicle id="veh400" type="standard_car" route="SN" depart="485" />
    <vehicle id="veh401" type="standard_car" route="WE" depart="486" />
    <vehicle id="veh402" type="standard_car" route="NS" depart="487" />
    <vehicle id="veh403" type="standard_car" route="EW" depart="489" />
    <vehicle id="veh404" type="standard_car" route="NS" depart="490" />
    <vehicle id="veh405" type="standard_car" route="WE" depart="497" />
    <vehicle id="veh406" type="standard_car" route="WE" depart="497" />
    <vehicle id="veh407" type="standard_car" route="NS" depart="499" />
    <vehicle id="veh408" type="standard_car" route="SN" depart="499" />
    <vehicle id="veh409" type="standard_car" route="NS" depart="500" />
    <vehicle id="veh410" type="standard_car" route="WE" depart="500" />
    <vehicle id="veh411" type="standard_car" route="NS" depart="501" />
    <vehicle id="veh412" type="standard_car" route="EW" depart="502" />
    <vehicle id="veh413" type="standard_car" route="NS" depart="502" />
    <vehicle id="veh414" type="standard_car" route="WE" depart="502" />